---- qbsp / ericw-tools v0.18.1 ----
Input file: Spire.map
Output file: Spire.bsp

---- LoadMapFile ----
          510 faces
           85 brushes
           43 entities
            5 unique texnames
          124 texinfo

Opened WAD: ../wads/prototype_1_3.wad
Processing hull 0...
---- Brush_LoadEntity ----
           83 brushes
          101 planes
---- CSGFaces ----
          498 brushfaces
          528 csgfaces
          501 mergedfaces
---- SolidBSP ----
          626 split nodes
          245 solid leafs
          354 empty leafs
           28 water leafs
            0 detail leafs
            0 detail illusionary leafs
            0 detail fence leafs
            0 illusionary visblocker leafs
         1592 leaffaces
         1529 nodefaces
---- Portalize ----
          382 vis leafs
          382 vis clusters
         1000 vis portals
---- FillOutside ----
          209 outleafs
---- MergeAll ----
          404 mergefaces
---- SolidBSP ----
          203 split nodes
           91 solid leafs
           89 empty leafs
           24 water leafs
            0 detail leafs
            0 detail illusionary leafs
            0 detail fence leafs
            0 illusionary visblocker leafs
          864 leaffaces
          707 nodefaces
---- Portalize ----
          113 vis leafs
          113 vis clusters
          307 vis portals
---- Tjunc ----
          503 world edges
         2015 edge points
          582 edges added by tjunctions
            0 faces added by tjunctions
---- MakeFaceEdges ----
---- GrowRegions ----
Processing hull 1...
Processing hull 2...
---- WriteBSPFile ----
Wrote Spire.bsp
          171 planes             3420
          827 vertexes           9924
          215 nodes              5160
           81 texinfo            3240
          719 faces             14380
          434 clipnodes          3472
          126 leafs              3528
          876 marksurfaces       1752
         3458 surfedges         13832
         1730 edges              6920
            5 textures          60064
              lightdata             0
              visdata               0
              entdata            2612

0.129 seconds elapsed
Peak memory usage: 4588012 (4.4M)
