---- qbsp / ericw-tools v0.18.1 ----
Input file: SpireOliverChen.map
Output file: SpireOliverChen.bsp

---- LoadMapFile ----
         1146 faces
          191 brushes
          104 entities
            6 unique texnames
          156 texinfo

Opened WAD: ../wads/prototype_1_3.wad
Processing hull 0...
---- Brush_LoadEntity ----
          185 brushes
          187 planes
---- CSGFaces ----
         1110 brushfaces
         1250 csgfaces
         1144 mergedfaces
---- SolidBSP ----
         1564 split nodes
          590 solid leafs
          920 empty leafs
           55 water leafs
            0 detail leafs
            0 detail illusionary leafs
            0 detail fence leafs
            0 illusionary visblocker leafs
         3296 leaffaces
         3007 nodefaces
---- Portalize ----
          975 vis leafs
          975 vis clusters
         2897 vis portals
---- FillOutside ----
*** WARNING 10: Reached occupant at (-560 -48 -312), no filling performed.
Leak file written to SpireOliverChen.pts
---- MakeFaceEdges ----
---- GrowRegions ----
Processing hull 1...
*** WARNING 10: Reached occupant at (-560 -48 -312), no filling performed.
Processing hull 2...
*** WARNING 10: Reached occupant at (-560 -48 -312), no filling performed.
---- WriteBSPFile ----
Wrote SpireOliverChen.bsp
          292 planes             5840
         3456 vertexes          41472
         1600 nodes             38400
          137 texinfo            5480
         3051 faces             61020
         2840 clipnodes         22720
         1012 leafs             28336
         3340 marksurfaces       6680
        12204 surfedges         48816
         7826 edges             31304
            6 textures          81868
              lightdata             0
              visdata               0
              entdata            6477

0.206 seconds elapsed
Peak memory usage: 14622936 (13.9M)
