---- qbsp / ericw-tools v0.18.1 ----
Input file: SpireOliverChen.map
Output file: SpireOliverChen.bsp

---- LoadMapFile ----
          870 faces
          145 brushes
           47 entities
            5 unique texnames
          120 texinfo

Opened WAD: ../wads/prototype_1_3.wad
Processing hull 0...
---- Brush_LoadEntity ----
          141 brushes
          135 planes
---- CSGFaces ----
          846 brushfaces
          896 csgfaces
          808 mergedfaces
---- SolidBSP ----
          988 split nodes
          392 solid leafs
          557 empty leafs
           40 water leafs
            0 detail leafs
            0 detail illusionary leafs
            0 detail fence leafs
            0 illusionary visblocker leafs
         2396 leaffaces
         2273 nodefaces
---- Portalize ----
          597 vis leafs
          597 vis clusters
         1552 vis portals
---- FillOutside ----
          339 outleafs
---- MergeAll ----
          612 mergefaces
---- SolidBSP ----
          360 split nodes
          174 solid leafs
          154 empty leafs
           33 water leafs
            0 detail leafs
            0 detail illusionary leafs
            0 detail fence leafs
            0 illusionary visblocker leafs
         1271 leaffaces
         1040 nodefaces
---- Portalize ----
          187 vis leafs
          187 vis clusters
          504 vis portals
---- Tjunc ----
          760 world edges
         2966 edge points
          790 edges added by tjunctions
            0 faces added by tjunctions
---- MakeFaceEdges ----
---- GrowRegions ----
Processing hull 1...
Processing hull 2...
---- WriteBSPFile ----
Wrote SpireOliverChen.bsp
          201 planes             4020
         1219 vertexes          14628
          384 nodes              9216
           81 texinfo            3240
         1064 faces             21280
          719 clipnodes          5752
          212 leafs              5936
         1295 marksurfaces       2590
         5046 surfedges         20184
         2524 edges             10096
            5 textures          60064
              lightdata             0
              visdata               0
              entdata            2968

0.131 seconds elapsed
Peak memory usage: 7351066 (7.0M)
