---- qbsp / ericw-tools v0.18.1 ----
Input file: SpireOliverChen2.map
Output file: SpireOliverChen2.bsp

---- LoadMapFile ----
         1732 faces
          289 brushes
          147 entities
           29 unique texnames
          395 texinfo

Opened WAD: ../wads/hipnotic.wad
Opened WAD: ../wads/id1.wad
Opened WAD: ../wads/prototype_1_3.wad
Opened WAD: ../wads/rogue.wad
Processing hull 0...
---- Brush_LoadEntity ----
          279 brushes
          245 planes
---- CSGFaces ----
         1672 brushfaces
         1768 csgfaces
         1618 mergedfaces
---- SolidBSP ----
         2125 split nodes
          816 solid leafs
         1239 empty leafs
           71 water leafs
            0 detail leafs
            0 detail illusionary leafs
            0 detail fence leafs
            0 illusionary visblocker leafs
         4676 leaffaces
         4217 nodefaces
---- Portalize ----
         1310 vis leafs
         1310 vis clusters
         4015 vis portals
---- FillOutside ----
*** WARNING 10: Reached occupant at (-560 -48 -312), no filling performed.
Leak file written to SpireOliverChen2.pts
---- MakeFaceEdges ----
---- GrowRegions ----
Processing hull 1...
*** WARNING 10: Reached occupant at (-560 -48 -312), no filling performed.
Processing hull 2...
*** WARNING 10: Reached occupant at (-560 -48 -312), no filling performed.
---- WriteBSPFile ----
Wrote SpireOliverChen2.bsp
          396 planes             7920
         4809 vertexes          57708
         2185 nodes             52440
          334 texinfo           13360
         4285 faces             85700
         4245 clipnodes         33960
         1371 leafs             38388
         4744 marksurfaces       9488
        17138 surfedges         68552
        10995 edges             43980
           29 textures         206640
              lightdata             0
              visdata               0
              entdata            9017

0.196 seconds elapsed
Peak memory usage: 21401816 (20.4M)
