---- qbsp / ericw-tools v0.18.1 ----
Input file: ZombieMap.map
Output file: ZombieMap.bsp

---- LoadMapFile ----
*** WARNING 06: No info_player_deathmatch entities in level
           54 faces
            9 brushes
            9 entities
            5 unique texnames
           15 texinfo

Opened WAD: ../wads/id1.wad
Processing hull 0...
---- Brush_LoadEntity ----
            9 brushes
           24 planes
---- CSGFaces ----
           54 brushfaces
           60 csgfaces
           66 mergedfaces
---- SolidBSP ----
          106 split nodes
           34 solid leafs
           72 empty leafs
            1 water leafs
            0 detail leafs
            0 detail illusionary leafs
            0 detail fence leafs
            0 illusionary visblocker leafs
          208 leaffaces
          206 nodefaces
---- Portalize ----
           73 vis leafs
           73 vis clusters
          162 vis portals
---- FillOutside ----
           60 outleafs
---- MergeAll ----
           40 mergefaces
---- SolidBSP ----
           30 split nodes
           18 solid leafs
           12 empty leafs
            1 water leafs
            0 detail leafs
            0 detail illusionary leafs
            0 detail fence leafs
            0 illusionary visblocker leafs
          112 leaffaces
           78 nodefaces
---- Portalize ----
           13 vis leafs
           13 vis clusters
           32 vis portals
---- Tjunc ----
           70 world edges
          254 edge points
           64 edges added by tjunctions
            0 faces added by tjunctions
---- MakeFaceEdges ----
---- GrowRegions ----
Processing hull 1...
*** WARNING 19: No entities in empty space -- no filling performed (hull 1)
Processing hull 2...
*** WARNING 19: No entities in empty space -- no filling performed (hull 2)
---- WriteBSPFile ----
Wrote ZombieMap.bsp
           57 planes             1140
          104 vertexes           1248
           30 nodes               720
            9 texinfo             360
           78 faces              1560
          201 clipnodes          1608
           14 leafs               392
          112 marksurfaces        224
          376 surfedges          1504
          189 edges               756
            5 textures          27424
              lightdata             0
              visdata               0
              entdata             589

0.037 seconds elapsed
Peak memory usage: 730660 (0.7M)
